432

Zr         2.48177        0.00000        0.00000
Zr         2.48177       10.35020       10.35020
Zr        12.83197        0.00000       10.35020
Zr        12.83197       10.35020        0.00000
Zr        18.21863        0.00000        0.00000
Zr        18.21863       10.35020       10.35020
Zr         7.86843        0.00000       10.35020
Zr         7.86843       10.35020        0.00000
Zr         0.00000        2.48177        0.00000
Zr         0.00000       12.83197       10.35020
Zr        10.35020        2.48177       10.35020
Zr        10.35020       12.83197        0.00000
Zr         0.00000       18.21863        0.00000
Zr         0.00000        7.86843       10.35020
Zr        10.35020       18.21863       10.35020
Zr        10.35020        7.86843        0.00000
Zr         0.00000        0.00000        2.48177
Zr         0.00000       10.35020       12.83197
Zr        10.35020        0.00000       12.83197
Zr        10.35020       10.35020        2.48177
Zr         0.00000        0.00000       18.21863
Zr         0.00000       10.35020        7.86843
Zr        10.35020        0.00000        7.86843
Zr        10.35020       10.35020       18.21863
H          5.76962        0.00000        2.70099
H          5.76962       10.35020       13.05119
H         16.11982        0.00000       13.05119
H         16.11982       10.35020        2.70099
H         14.93078        0.00000        2.70099
H         14.93078       10.35020       13.05119
H          4.58058        0.00000       13.05119
H          4.58058       10.35020        2.70099
H         14.93078        0.00000       17.99941
H         14.93078       10.35020        7.64921
H          4.58058        0.00000        7.64921
H          4.58058       10.35020       17.99941
H          5.76962        0.00000       17.99941
H          5.76962       10.35020        7.64921
H         16.11982        0.00000        7.64921
H         16.11982       10.35020       17.99941
H          2.70099        5.76962        0.00000
H          2.70099       16.11982       10.35020
H         13.05119        5.76962       10.35020
H         13.05119       16.11982        0.00000
H          2.70099       14.93078        0.00000
H          2.70099        4.58058       10.35020
H         13.05119       14.93078       10.35020
H         13.05119        4.58058        0.00000
H         17.99941       14.93078        0.00000
H         17.99941        4.58058       10.35020
H          7.64921       14.93078       10.35020
H          7.64921        4.58058        0.00000
H         17.99941        5.76962        0.00000
H         17.99941       16.11982       10.35020
H          7.64921        5.76962       10.35020
H          7.64921       16.11982        0.00000
H          0.00000        2.70099        5.76962
H          0.00000       13.05119       16.11982
H         10.35020        2.70099       16.11982
H         10.35020       13.05119        5.76962
H          0.00000        2.70099       14.93078
H          0.00000       13.05119        4.58058
H         10.35020        2.70099        4.58058
H         10.35020       13.05119       14.93078
H          0.00000       17.99941       14.93078
H          0.00000        7.64921        4.58058
H         10.35020       17.99941        4.58058
H         10.35020        7.64921       14.93078
H          0.00000       17.99941        5.76962
H          0.00000        7.64921       16.11982
H         10.35020       17.99941       16.11982
H         10.35020        7.64921        5.76962
H          0.00000        5.76962       17.99941
H          0.00000       16.11982        7.64921
H         10.35020        5.76962        7.64921
H         10.35020       16.11982       17.99941
H          0.00000       14.93078       17.99941
H          0.00000        4.58058        7.64921
H         10.35020       14.93078        7.64921
H         10.35020        4.58058       17.99941
H          0.00000       14.93078        2.70099
H          0.00000        4.58058       13.05119
H         10.35020       14.93078       13.05119
H         10.35020        4.58058        2.70099
H          0.00000        5.76962        2.70099
H          0.00000       16.11982       13.05119
H         10.35020        5.76962       13.05119
H         10.35020       16.11982        2.70099
H          5.76962        2.70099        0.00000
H          5.76962       13.05119       10.35020
H         16.11982        2.70099       10.35020
H         16.11982       13.05119        0.00000
H         14.93078        2.70099        0.00000
H         14.93078       13.05119       10.35020
H          4.58058        2.70099       10.35020
H          4.58058       13.05119        0.00000
H         14.93078       17.99941        0.00000
H         14.93078        7.64921       10.35020
H          4.58058       17.99941       10.35020
H          4.58058        7.64921        0.00000
H          5.76962       17.99941        0.00000
H          5.76962        7.64921       10.35020
H         16.11982       17.99941       10.35020
H         16.11982        7.64921        0.00000
H          2.70099        0.00000       14.93078
H          2.70099       10.35020        4.58058
H         13.05119        0.00000        4.58058
H         13.05119       10.35020       14.93078
H          2.70099        0.00000        5.76962
H          2.70099       10.35020       16.11982
H         13.05119        0.00000       16.11982
H         13.05119       10.35020        5.76962
H         17.99941        0.00000        5.76962
H         17.99941       10.35020       16.11982
H          7.64921        0.00000       16.11982
H          7.64921       10.35020        5.76962
H         17.99941        0.00000       14.93078
H         17.99941       10.35020        4.58058
H          7.64921        0.00000        4.58058
H          7.64921       10.35020       14.93078
C          5.53736        0.00000        3.81715
C          5.53736       10.35020       14.16735
C         15.88756        0.00000       14.16735
C         15.88756       10.35020        3.81715
C         15.16304        0.00000        3.81715
C         15.16304       10.35020       14.16735
C          4.81284        0.00000       14.16735
C          4.81284       10.35020        3.81715
C         15.16304        0.00000       16.88325
C         15.16304       10.35020        6.53305
C          4.81284        0.00000        6.53305
C          4.81284       10.35020       16.88325
C          5.53736        0.00000       16.88325
C          5.53736       10.35020        6.53305
C         15.88756        0.00000        6.53305
C         15.88756       10.35020       16.88325
C          3.81715        5.53736        0.00000
C          3.81715       15.88756       10.35020
C         14.16735        5.53736       10.35020
C         14.16735       15.88756        0.00000
C          3.81715       15.16304        0.00000
C          3.81715        4.81284       10.35020
C         14.16735       15.16304       10.35020
C         14.16735        4.81284        0.00000
C         16.88325       15.16304        0.00000
C         16.88325        4.81284       10.35020
C          6.53305       15.16304       10.35020
C          6.53305        4.81284        0.00000
C         16.88325        5.53736        0.00000
C         16.88325       15.88756       10.35020
C          6.53305        5.53736       10.35020
C          6.53305       15.88756        0.00000
C          0.00000        3.81715        5.53736
C          0.00000       14.16735       15.88756
C         10.35020        3.81715       15.88756
C         10.35020       14.16735        5.53736
C          0.00000        3.81715       15.16304
C          0.00000       14.16735        4.81284
C         10.35020        3.81715        4.81284
C         10.35020       14.16735       15.16304
C          0.00000       16.88325       15.16304
C          0.00000        6.53305        4.81284
C         10.35020       16.88325        4.81284
C         10.35020        6.53305       15.16304
C          0.00000       16.88325        5.53736
C          0.00000        6.53305       15.88756
C         10.35020       16.88325       15.88756
C         10.35020        6.53305        5.53736
C          0.00000        5.53736       16.88325
C          0.00000       15.88756        6.53305
C         10.35020        5.53736        6.53305
C         10.35020       15.88756       16.88325
C          0.00000       15.16304       16.88325
C          0.00000        4.81284        6.53305
C         10.35020       15.16304        6.53305
C         10.35020        4.81284       16.88325
C          0.00000       15.16304        3.81715
C          0.00000        4.81284       14.16735
C         10.35020       15.16304       14.16735
C         10.35020        4.81284        3.81715
C          0.00000        5.53736        3.81715
C          0.00000       15.88756       14.16735
C         10.35020        5.53736       14.16735
C         10.35020       15.88756        3.81715
C          5.53736        3.81715        0.00000
C          5.53736       14.16735       10.35020
C         15.88756        3.81715       10.35020
C         15.88756       14.16735        0.00000
C         15.16304        3.81715        0.00000
C         15.16304       14.16735       10.35020
C          4.81284        3.81715       10.35020
C          4.81284       14.16735        0.00000
C         15.16304       16.88325        0.00000
C         15.16304        6.53305       10.35020
C          4.81284       16.88325       10.35020
C          4.81284        6.53305        0.00000
C          5.53736       16.88325        0.00000
C          5.53736        6.53305       10.35020
C         15.88756       16.88325       10.35020
C         15.88756        6.53305        0.00000
C          3.81715        0.00000       15.16304
C          3.81715       10.35020        4.81284
C         14.16735        0.00000        4.81284
C         14.16735       10.35020       15.16304
C          3.81715        0.00000        5.53736
C          3.81715       10.35020       15.88756
C         14.16735        0.00000       15.88756
C         14.16735       10.35020        5.53736
C         16.88325        0.00000        5.53736
C         16.88325       10.35020       15.88756
C          6.53305        0.00000       15.88756
C          6.53305       10.35020        5.53736
C         16.88325        0.00000       15.16304
C         16.88325       10.35020        4.81284
C          6.53305        0.00000        4.81284
C          6.53305       10.35020       15.16304
C          3.17958        0.00000       17.52082
C          3.17958       10.35020        7.17062
C         13.52978        0.00000        7.17062
C         13.52978       10.35020       17.52082
C         17.52082        0.00000       17.52082
C         17.52082       10.35020        7.17062
C          7.17062        0.00000        7.17062
C          7.17062       10.35020       17.52082
C         17.52082        0.00000        3.17958
C         17.52082       10.35020       13.52978
C          7.17062        0.00000       13.52978
C          7.17062       10.35020        3.17958
C          3.17958        0.00000        3.17958
C          3.17958       10.35020       13.52978
C         13.52978        0.00000       13.52978
C         13.52978       10.35020        3.17958
C         17.52082        3.17958        0.00000
C         17.52082       13.52978       10.35020
C          7.17062        3.17958       10.35020
C          7.17062       13.52978        0.00000
C         17.52082       17.52082        0.00000
C         17.52082        7.17062       10.35020
C          7.17062       17.52082       10.35020
C          7.17062        7.17062        0.00000
C          3.17958       17.52082        0.00000
C          3.17958        7.17062       10.35020
C         13.52978       17.52082       10.35020
C         13.52978        7.17062        0.00000
C          3.17958        3.17958        0.00000
C          3.17958       13.52978       10.35020
C         13.52978        3.17958       10.35020
C         13.52978       13.52978        0.00000
C          0.00000       17.52082        3.17958
C          0.00000        7.17062       13.52978
C         10.35020       17.52082       13.52978
C         10.35020        7.17062        3.17958
C          0.00000       17.52082       17.52082
C          0.00000        7.17062        7.17062
C         10.35020       17.52082        7.17062
C         10.35020        7.17062       17.52082
C          0.00000        3.17958       17.52082
C          0.00000       13.52978        7.17062
C         10.35020        3.17958        7.17062
C         10.35020       13.52978       17.52082
C          0.00000        3.17958        3.17958
C          0.00000       13.52978       13.52978
C         10.35020        3.17958       13.52978
C         10.35020       13.52978        3.17958
C          4.24358        0.00000        4.24358
C          4.24358       10.35020       14.59378
C         14.59378        0.00000       14.59378
C         14.59378       10.35020        4.24358
C         16.45682        0.00000        4.24358
C         16.45682       10.35020       14.59378
C          6.10662        0.00000       14.59378
C          6.10662       10.35020        4.24358
C         16.45682        0.00000       16.45682
C         16.45682       10.35020        6.10662
C          6.10662        0.00000        6.10662
C          6.10662       10.35020       16.45682
C          4.24358        0.00000       16.45682
C          4.24358       10.35020        6.10662
C         14.59378        0.00000        6.10662
C         14.59378       10.35020       16.45682
C          4.24358        4.24358        0.00000
C          4.24358       14.59378       10.35020
C         14.59378        4.24358       10.35020
C         14.59378       14.59378        0.00000
C          4.24358       16.45682        0.00000
C          4.24358        6.10662       10.35020
C         14.59378       16.45682       10.35020
C         14.59378        6.10662        0.00000
C         16.45682       16.45682        0.00000
C         16.45682        6.10662       10.35020
C          6.10662       16.45682       10.35020
C          6.10662        6.10662        0.00000
C         16.45682        4.24358        0.00000
C         16.45682       14.59378       10.35020
C          6.10662        4.24358       10.35020
C          6.10662       14.59378        0.00000
C          0.00000        4.24358        4.24358
C          0.00000       14.59378       14.59378
C         10.35020        4.24358       14.59378
C         10.35020       14.59378        4.24358
C          0.00000        4.24358       16.45682
C          0.00000       14.59378        6.10662
C         10.35020        4.24358        6.10662
C         10.35020       14.59378       16.45682
C          0.00000       16.45682       16.45682
C          0.00000        6.10662        6.10662
C         10.35020       16.45682        6.10662
C         10.35020        6.10662       16.45682
C          0.00000       16.45682        4.24358
C          0.00000        6.10662       14.59378
C         10.35020       16.45682       14.59378
C         10.35020        6.10662        4.24358
O          3.52880        0.00000        1.97275
O          3.52880       10.35020       12.32295
O         13.87900        0.00000       12.32295
O         13.87900       10.35020        1.97275
O         17.17160        0.00000        1.97275
O         17.17160       10.35020       12.32295
O          6.82140        0.00000       12.32295
O          6.82140       10.35020        1.97275
O         17.17160        0.00000       18.72765
O         17.17160       10.35020        8.37745
O          6.82140        0.00000        8.37745
O          6.82140       10.35020       18.72765
O          3.52880        0.00000       18.72765
O          3.52880       10.35020        8.37745
O         13.87900        0.00000        8.37745
O         13.87900       10.35020       18.72765
O          1.97275        3.52880        0.00000
O          1.97275       13.87900       10.35020
O         12.32295        3.52880       10.35020
O         12.32295       13.87900        0.00000
O          1.97275       17.17160        0.00000
O          1.97275        6.82140       10.35020
O         12.32295       17.17160       10.35020
O         12.32295        6.82140        0.00000
O         18.72765       17.17160        0.00000
O         18.72765        6.82140       10.35020
O          8.37745       17.17160       10.35020
O          8.37745        6.82140        0.00000
O         18.72765        3.52880        0.00000
O         18.72765       13.87900       10.35020
O          8.37745        3.52880       10.35020
O          8.37745       13.87900        0.00000
O          0.00000        1.97275        3.52880
O          0.00000       12.32295       13.87900
O         10.35020        1.97275       13.87900
O         10.35020       12.32295        3.52880
O          0.00000        1.97275       17.17160
O          0.00000       12.32295        6.82140
O         10.35020        1.97275        6.82140
O         10.35020       12.32295       17.17160
O          0.00000       18.72765       17.17160
O          0.00000        8.37745        6.82140
O         10.35020       18.72765        6.82140
O         10.35020        8.37745       17.17160
O          0.00000       18.72765        3.52880
O          0.00000        8.37745       13.87900
O         10.35020       18.72765       13.87900
O         10.35020        8.37745        3.52880
O          0.00000        3.52880       18.72765
O          0.00000       13.87900        8.37745
O         10.35020        3.52880        8.37745
O         10.35020       13.87900       18.72765
O          0.00000       17.17160       18.72765
O          0.00000        6.82140        8.37745
O         10.35020       17.17160        8.37745
O         10.35020        6.82140       18.72765
O          0.00000       17.17160        1.97275
O          0.00000        6.82140       12.32295
O         10.35020       17.17160       12.32295
O         10.35020        6.82140        1.97275
O          0.00000        3.52880        1.97275
O          0.00000       13.87900       12.32295
O         10.35020        3.52880       12.32295
O         10.35020       13.87900        1.97275
O          3.52880        1.97275        0.00000
O          3.52880       12.32295       10.35020
O         13.87900        1.97275       10.35020
O         13.87900       12.32295        0.00000
O         17.17160        1.97275        0.00000
O         17.17160       12.32295       10.35020
O          6.82140        1.97275       10.35020
O          6.82140       12.32295        0.00000
O         17.17160       18.72765        0.00000
O         17.17160        8.37745       10.35020
O          6.82140       18.72765       10.35020
O          6.82140        8.37745        0.00000
O          3.52880       18.72765        0.00000
O          3.52880        8.37745       10.35020
O         13.87900       18.72765       10.35020
O         13.87900        8.37745        0.00000
O          1.97275        0.00000       17.17160
O          1.97275       10.35020        6.82140
O         12.32295        0.00000        6.82140
O         12.32295       10.35020       17.17160
O          1.97275        0.00000        3.52880
O          1.97275       10.35020       13.87900
O         12.32295        0.00000       13.87900
O         12.32295       10.35020        3.52880
O         18.72765        0.00000        3.52880
O         18.72765       10.35020       13.87900
O          8.37745        0.00000       13.87900
O          8.37745       10.35020        3.52880
O         18.72765        0.00000       17.17160
O         18.72765       10.35020        6.82140
O          8.37745        0.00000        6.82140
O          8.37745       10.35020       17.17160
O          1.16129        9.18891        9.18891
O         11.51149       19.53911        9.18891
O         11.51149        9.18891       19.53911
O          9.18891        1.16129        9.18891
O          9.18891       11.51149       19.53911
O         19.53911       19.53911        1.16129
O         19.53911        9.18891       11.51149
O          1.16129        1.16129        1.16129
O         11.51149       11.51149        1.16129
O         19.53911        1.16129        1.16129
O         19.53911       11.51149       11.51149
O          9.18891        1.16129       11.51149
O          9.18891       11.51149        1.16129
O          1.16129       19.53911        1.16129
O          1.16129        9.18891       11.51149
O         11.51149       19.53911       11.51149
O         11.51149        9.18891        1.16129
O         19.53911       19.53911       19.53911
O         19.53911        9.18891        9.18891
O          9.18891       19.53911        9.18891
O          9.18891        9.18891       19.53911
O          1.16129        1.16129       19.53911
O          1.16129       11.51149        9.18891
O         11.51149        1.16129        9.18891
