116
CELL:  17.00152  17.00162  13.48242  90.000  90.000  120.000  
  O   1.21166   7.83205  11.36552 
  O  -2.32552   9.75850  11.36552 
  O   1.11131  11.85845  11.36552 
  O   2.32388   9.75843  11.36552 
  O  -1.11309  11.85848  11.36552 
  O  -1.21334   7.83208  11.36552 
  C   2.13947   8.58064  11.80912 
  C  -2.14113   8.58069  11.80912 
  C  -0.00088  12.28787  11.80912 
  O   1.21166   7.83205   8.85812 
  O  -2.32552   9.75850   8.85812 
  O   1.11131  11.85845   8.85812 
  O   2.32388   9.75843   8.85812 
  O  -1.11309  11.85848   8.85812 
  O  -1.21334   7.83208   8.85812 
 Al  -0.00094   8.08187  10.11192 
 Al  -1.50310  10.68369  10.11192 
 Al   1.50130  10.68365  10.11192 
  O  -0.00092   9.81647  10.11192 
  C   2.13947   8.58064   8.41452 
  C  -2.14113   8.58069   8.41452 
  C  -0.00088  12.28787   8.41452 
  O   7.28740   6.89281   4.62431 
  O  10.82458   4.96636   4.62431 
  O   7.38775   2.86641   4.62431 
  O   6.17518   4.96642   4.62431 
  O   9.61215   2.86638   4.62431 
  O   9.71240   6.89278   4.62431 
  C   6.35959   6.14422   5.06791 
  C  10.64019   6.14416   5.06791 
  C   8.49994   2.43699   5.06791 
  O   7.28740   6.89281   2.11691 
  O  10.82458   4.96636   2.11691 
  O   7.38775   2.86641   2.11691 
  O   6.17518   4.96642   2.11691 
  O   9.61215   2.86638   2.11691 
  O   9.71240   6.89278   2.11691 
 Al   8.50000   6.64299   3.37071 
 Al  10.00216   4.04117   3.37071 
 Al   6.99776   4.04121   3.37071 
  O   8.49998   4.90839   3.37071 
  C   6.35959   6.14422   1.67331 
  C  10.64019   6.14416   1.67331 
  C   8.49994   2.43699   1.67331 
  C  -3.24054   7.94595  12.68095 
  C  -4.04952   8.72193   0.03885 
  C  11.94924   8.17518   0.83885 
  C  11.73960   6.77891   0.80148 
  C  12.54858   6.00293  13.44357 
  C  -3.45018   6.54968  12.64358 
  H  -3.86773   9.79366   0.04920 
  O  11.18313   8.96594   1.64348 
  H  12.36679   4.93119  13.43322 
  O  -2.68407   5.75891  11.83895 
  H  14.03617   4.83555  11.94037 
  H  -5.53712   9.88930   1.54205 
  C  11.73960   6.77891   5.93974 
  C  11.87205   6.46304   7.29820 
  C  12.85735   7.02150   8.11169 
  C  -3.24054   7.94595   7.54269 
  C  -3.37299   8.26182   6.18422 
  C  -4.35829   7.70336   5.37073 
  H  11.16412   5.74908   7.71156 
  O  12.95238   6.68709   9.43033 
  H  -2.66506   8.97577   5.77087 
  O  -4.45332   8.03777   4.05210 
  H  -3.75790   8.67951   3.83631 
  H  12.25696   6.04535   9.64611 
  C   8.49993   1.16754   5.93973 
  C   7.36565   0.77349   6.66145 
  C  -1.16447  14.35346   7.45838 
  C  -0.00087  13.55732   7.54270 
  C   1.13341  13.95136   6.82097 
  C   9.66353   0.37140   6.02404 
  H   6.48348   1.40345   6.57955 
  O  -2.28964  14.00459   8.14536 
  H   2.01558  13.32140   6.90288 
  O  10.78870   0.72027   5.33707 
  H  11.48307   0.06485   5.51111 
  H  -2.98401  14.66001   7.97132 
  C  -0.00087  13.55732  12.68094 
  C   1.10350  14.41835  12.72268 
  C   9.63267   0.85043   0.01966 
  C   8.49993   1.16754   0.80149 
  C   7.39556   0.30650   0.75974 
  C  -1.13361  13.87443  13.46277 
  H   1.96234  14.15158  12.11195 
  O  10.72812   1.66253   0.03213 
  H   6.53672   0.57328   1.37047 
  O  -2.22906  13.06233  13.45030 
  H  -2.90507  13.43188   0.55816 
  H  11.40413   1.29298  12.92426 
  C   5.26022   6.77892   0.80149 
  C   3.93402   6.86910   1.24399 
  C   2.91814   7.43844   0.47699 
  C   3.23884   7.94593  12.68093 
  C   4.56504   7.85575  12.23843 
  C   5.58092   7.28642  13.00543 
  H   3.71363   6.47109   2.23131 
  O   1.63904   7.50694   0.94484 
  H   4.78543   8.25376  11.25112 
  O   6.86002   7.21792  12.53758 
  H   6.89531   7.61098  11.65087 
  H   1.60375   7.11387   1.83155 
  C   5.26022   6.77892   5.93972 
  C   5.51005   7.17922   7.25885 
  C   4.53484   7.75656   8.07131 
  C   3.23884   7.94593   7.54270 
  C   2.98900   7.54564   6.22358 
  C   3.96422   6.96830   5.41111 
  H   6.51538   7.02239   7.64159 
  O   4.81910   8.13268   9.35092 
  H   1.98368   7.70247   5.84083 
  O   3.67996   6.59218   4.13150 
  H   2.75047   6.79540   3.93982 
  H   5.74859   7.92945   9.54261 
