288
XYZ
C            11.292827200     0.212506890     8.722151100
C            17.942209760     4.115496030     4.100970600
H            17.525562880     3.622350270     3.431082600
C             0.460008320     4.191738960     5.887687500
H             1.018051200     3.753747660     6.489540000
C            17.738599520     5.479757820     4.139698500
H            17.173015520     5.890171890     3.525285600
C            18.396562240     6.235698360     5.113129500
C             0.318612320     5.557622940     6.004917900
H             0.750341440     6.015080520     6.690506400
C            18.238198720     7.734601920     5.141390400
H            17.827207680     8.016862980     4.308217200
H            17.627368000     7.966575090     5.859426600
O            17.229573920    15.104211090     6.769008900
O            10.834704160     1.247464110     9.229800600
O            10.725357920    15.295629510     8.761925700
N            18.701977600     3.477975360     4.969731600
C            16.745056960     0.045421320     6.731327700
C            15.344293920     0.225484410     7.209669600
C            14.767398240    15.368628060     7.826175900
H            15.274538560    14.599710000     7.955966700
C            13.442046400    15.386472150     8.266836600
H            13.095154880    14.633775990     8.689703400
C            12.646458240     0.254683830     8.092037700
C            13.183763040     1.416171870     7.431570000
C            14.544935200     1.406438730     7.008703200
C            15.031337440     2.608481520     6.376496400
H            15.921189600     2.645791890     6.103307700
C            14.235749280     3.685615680     6.169249800
H            14.588296640     4.448044980     5.768363700
C            12.904741600     3.666149400     6.548155200
H            12.369322080     4.409112420     6.388010100
C            12.371207360     2.566304580     7.153147800
H            11.471928800     2.563060200     7.388655300
O            17.365314080     1.030090650     6.287526900
Zn            0.050148448     1.456726620     4.933620450
C            16.986372800    16.009393110     3.488651100
C            10.336990240    12.106403970     9.334470600
H            10.753637120    12.599549730     8.664582600
C             8.966391680    12.030161040     0.654187500
H             8.408348800    12.468152340     1.256040000
C            10.540600480    10.742142180     9.373198500
H            11.106184480    10.331728110     8.758785600
C             9.882637760     9.986201640    10.346629500
C             9.107787680    10.664277060     0.771417900
H             8.676058560    10.206819480     1.457006400
C            10.041001280     8.487298080    10.374890400
H            10.451992320     8.205037020     9.541717200
H            10.651832000     8.255324910     0.625926600
O            11.049626080     1.117688910     1.535508900
O            17.444495840    14.974435890     3.996300600
O            17.553842080     0.926270490     3.528425700
N             9.577222400    12.743924640    10.203231600
C            11.534143040    16.176478680     1.497827700
C            12.934906080    15.996415590     1.976169600
C            13.511801760     0.853271940     2.592675900
H            13.004661440     1.622190000     2.722466700
C            14.837153600     0.835427850     3.033336600
H            15.184045120     1.588124010     3.456203400
C            15.632741760    15.967216170     2.858537700
C            15.095436960    14.805728130     2.198070000
C            13.734264800    14.815461270     1.775203200
C            13.247862560    13.613418480     1.142996400
H            12.358010400    13.576108110     0.869807700
C            14.043450720    12.536284320     0.935749800
H            13.690903360    11.773855020     0.534863700
C            15.374458400    12.555750600     1.314655200
H            15.909877920    11.812787580     1.154510100
C            15.907992640    13.655595420     1.919647800
H            16.807271200    13.658839800     2.155155300
O            10.913885920    15.191809350     1.054026900
Zn            9.376251552    14.765173380    10.167120450
C             1.866427200     7.898443110     1.744848900
C             8.515809760     3.995453970     6.366029400
H             8.099162880     4.488599730     7.035917400
C             9.886408320     3.919211040     4.579312500
H            10.444451200     4.357202340     3.977460000
C             8.312199520     2.631192180     6.327301500
H             7.746615520     2.220778110     6.941714400
C             8.970162240     1.875251640     5.353870500
C             9.745012320     2.553327060     4.462082100
H            10.176741440     2.095869480     3.776493600
C             8.811798720     0.376348080     5.325609600
H             8.400807680     0.094087020     6.158782800
H             8.200968000     0.144374910     4.607573400
O             7.803173920     9.228638910     3.697991100
O             1.408304160     6.863485890     1.237199400
O             1.298957920     9.037220490     1.705074300
N             9.275577600     4.632974640     5.497268400
C             7.318656960     8.065528680     3.735672300
C             5.917893920     7.885465590     3.257330400
C             5.340998240     8.964221940     2.640824100
H             5.848138560     9.733140000     2.511033300
C             4.015646400     8.946377850     2.200163400
H             3.668754880     9.699074010     1.777296600
C             3.220058240     7.856266170     2.374962300
C             3.757363040     6.694778130     3.035430000
C             5.118535200     6.704511270     3.458296800
C             5.604937440     5.502468480     4.090503600
H             6.494789600     5.465158110     4.363692300
C             4.809349280     4.425334320     4.297750200
H             5.161896640     3.662905020     4.698636300
C             3.478341600     4.444800600     3.918844800
H             2.942922080     3.701837580     4.078989900
C             2.944807360     5.544645420     3.313852200
H             2.045528800     5.547889800     3.078344700
O             7.938914080     7.080859350     4.179473100
Zn            9.476548448     6.654223380     5.533379550
C             7.559972800     8.323456890     6.978348900
C             0.910590240    12.226446030     1.132529400
H             1.327237120    11.733300270     1.802417400
C            18.392791680    12.302688960     9.812812500
H            17.834748800    11.864697660     9.210960000
C             1.114200480    13.590707820     1.093801500
H             1.679784480    14.001121890     1.708214400
C             0.456237760    14.346648360     0.120370500
C            18.534187680    13.668572940     9.695582100
H            18.102458560    14.126030520     9.009993600
C             0.614601280    15.845551920     0.092109600
H             1.025592320    16.127812980     0.925282800
H             1.225432000    16.077525090     9.841073400
O             1.623226080     6.993261090     8.931491100
O             8.018095840     9.358414110     6.470699400
O             8.127442080     7.184679510     6.938574300
N             0.150822400    11.588925360     0.263768400
C             2.107743040     8.156371320     8.969172300
C             3.508506080     8.336434410     8.490830400
C             4.085401760     7.257678060     7.874324100
H             3.578261440     6.488760000     7.744533300
C             5.410753600     7.275522150     7.433663400
H             5.757645120     6.522825990     7.010796600
C             6.206341760     8.365633830     7.608462300
C             5.669036960     9.527121870     8.268930000
C             4.307864800     9.517388730     8.691796800
C             3.821462560    10.719431520     9.324003600
H             2.931610400    10.756741890     9.597192300
C             4.617050720    11.796565680     9.531250200
H             4.264503360    12.558994980     9.932136300
C             5.948058400    11.777099400     9.152344800
H             6.483477920    12.520062420     9.312489900
C             6.481592640    10.677254580     8.547352200
H             7.380871200    10.674010200     8.311844700
O             1.487485920     9.141040650     9.412973100
Zn           18.802651552     9.567676620     0.299879550
C             7.559972800    16.009393110     1.744848900
C             0.910590240    12.106403970     6.366029400
H             1.327237120    12.599549730     7.035917400
C            18.392791680    12.030161040     4.579312500
H            17.834748800    12.468152340     3.977460000
C             1.114200480    10.742142180     6.327301500
H             1.679784480    10.331728110     6.941714400
C             0.456237760     9.986201640     5.353870500
C            18.534187680    10.664277060     4.462082100
H            18.102458560    10.206819480     3.776493600
C             0.614601280     8.487298080     5.325609600
H             1.025592320     8.205037020     6.158782800
H             1.225432000     8.255324910     4.607573400
O             1.623226080     1.117688910     3.697991100
O             8.018095840    14.974435890     1.237199400
O             8.127442080     0.926270490     1.705074300
N             0.150822400    12.743924640     5.497268400
C             2.107743040    16.176478680     3.735672300
C             3.508506080    15.996415590     3.257330400
C             4.085401760     0.853271940     2.640824100
H             3.578261440     1.622190000     2.511033300
C             5.410753600     0.835427850     2.200163400
H             5.757645120     1.588124010     1.777296600
C             6.206341760    15.967216170     2.374962300
C             5.669036960    14.805728130     3.035430000
C             4.307864800    14.815461270     3.458296800
C             3.821462560    13.613418480     4.090503600
H             2.931610400    13.576108110     4.363692300
C             4.617050720    12.536284320     4.297750200
H             4.264503360    11.773855020     4.698636300
C             5.948058400    12.555750600     3.918844800
H             6.483477920    11.812787580     4.078989900
C             6.481592640    13.655595420     3.313852200
H             7.380871200    13.658839800     3.078344700
O             1.487485920    15.191809350     4.179473100
Zn           18.802651552    14.765173380     5.533379550
C             1.866427200     0.212506890     6.978348900
C             8.515809760     4.115496030     1.132529400
H             8.099162880     3.622350270     1.802417400
C             9.886408320     4.191738960     9.812812500
H            10.444451200     3.753747660     9.210960000
C             8.312199520     5.479757820     1.093801500
H             7.746615520     5.890171890     1.708214400
C             8.970162240     6.235698360     0.120370500
C             9.745012320     5.557622940     9.695582100
H            10.176741440     6.015080520     9.009993600
C             8.811798720     7.734601920     0.092109600
H             8.400807680     8.016862980     0.925282800
H             8.200968000     7.966575090     9.841073400
O             7.803173920    15.104211090     8.931491100
O             1.408304160     1.247464110     6.470699400
O             1.298957920    15.295629510     6.938574300
N             9.275577600     3.477975360     0.263768400
C             7.318656960     0.045421320     8.969172300
C             5.917893920     0.225484410     8.490830400
C             5.340998240    15.368628060     7.874324100
H             5.848138560    14.599710000     7.744533300
C             4.015646400    15.386472150     7.433663400
H             3.668754880    14.633775990     7.010796600
C             3.220058240     0.254683830     7.608462300
C             3.757363040     1.416171870     8.268930000
C             5.118535200     1.406438730     8.691796800
C             5.604937440     2.608481520     9.324003600
H             6.494789600     2.645791890     9.597192300
C             4.809349280     3.685615680     9.531250200
H             5.161896640     4.448044980     9.932136300
C             3.478341600     3.666149400     9.152344800
H             2.942922080     4.409112420     9.312489900
C             2.944807360     2.566304580     8.547352200
H             2.045528800     2.563060200     8.311844700
O             7.938914080     1.030090650     9.412973100
Zn            9.476548448     1.456726620     0.299879550
C            16.986372800     8.323456890     8.722151100
C            10.336990240    12.226446030     4.100970600
H            10.753637120    11.733300270     3.431082600
C             8.966391680    12.302688960     5.887687500
H             8.408348800    11.864697660     6.489540000
C            10.540600480    13.590707820     4.139698500
H            11.106184480    14.001121890     3.525285600
C             9.882637760    14.346648360     5.113129500
C             9.107787680    13.668572940     6.004917900
H             8.676058560    14.126030520     6.690506400
C            10.041001280    15.845551920     5.141390400
H            10.451992320    16.127812980     4.308217200
H            10.651832000    16.077525090     5.859426600
O            11.049626080     6.993261090     6.769008900
O            17.444495840     9.358414110     9.229800600
O            17.553842080     7.184679510     8.761925700
N             9.577222400    11.588925360     4.969731600
C            11.534143040     8.156371320     6.731327700
C            12.934906080     8.336434410     7.209669600
C            13.511801760     7.257678060     7.826175900
H            13.004661440     6.488760000     7.955966700
C            14.837153600     7.275522150     8.266836600
H            15.184045120     6.522825990     8.689703400
C            15.632741760     8.365633830     8.092037700
C            15.095436960     9.527121870     7.431570000
C            13.734264800     9.517388730     7.008703200
C            13.247862560    10.719431520     6.376496400
H            12.358010400    10.756741890     6.103307700
C            14.043450720    11.796565680     6.169249800
H            13.690903360    12.558994980     5.768363700
C            15.374458400    11.777099400     6.548155200
H            15.909877920    12.520062420     6.388010100
C            15.907992640    10.677254580     7.153147800
H            16.807271200    10.674010200     7.388655300
O            10.913885920     9.141040650     6.287526900
Zn            9.376251552     9.567676620     4.933620450
C            11.292827200     7.898443110     3.488651100
C            17.942209760     3.995453970     9.334470600
H            17.525562880     4.488599730     8.664582600
C             0.460008320     3.919211040     0.654187500
H             1.018051200     4.357202340     1.256040000
C            17.738599520     2.631192180     9.373198500
H            17.173015520     2.220778110     8.758785600
C            18.396562240     1.875251640    10.346629500
C             0.318612320     2.553327060     0.771417900
H             0.750341440     2.095869480     1.457006400
C            18.238198720     0.376348080    10.374890400
H            17.827207680     0.094087020     9.541717200
H            17.627368000     0.144374910     0.625926600
O            17.229573920     9.228638910     1.535508900
O            10.834704160     6.863485890     3.996300600
O            10.725357920     9.037220490     3.528425700
N            18.701977600     4.632974640    10.203231600
C            16.745056960     8.065528680     1.497827700
C            15.344293920     7.885465590     1.976169600
C            14.767398240     8.964221940     2.592675900
H            15.274538560     9.733140000     2.722466700
C            13.442046400     8.946377850     3.033336600
H            13.095154880     9.699074010     3.456203400
C            12.646458240     7.856266170     2.858537700
C            13.183763040     6.694778130     2.198070000
C            14.544935200     6.704511270     1.775203200
C            15.031337440     5.502468480     1.142996400
H            15.921189600     5.465158110     0.869807700
C            14.235749280     4.425334320     0.935749800
H            14.588296640     3.662905020     0.534863700
C            12.904741600     4.444800600     1.314655200
H            12.369322080     3.701837580     1.154510100
C            12.371207360     5.544645420     1.919647800
H            11.471928800     5.547889800     2.155155300
O            17.365314080     7.080859350     1.054026900
Zn            0.050148448     6.654223380    10.167120450
